version 2
1
9
.tran 10m 1{return}.kicad adjustpaths{return}.save all{return}.probe alli
2
1
V(Net-_C5-Pad2_)
 
1
V(Net-_U4--_)
 
