2
9
.tran 10u 10m
2
1
Net-(C2-Pad2)
V
1
Net-(C4-Pad2)
V
1
.ac dec 512 1 20k
1
9
Net-(C4-Pad2)
V
